<?xml version="1.0" encoding="UTF-8"?>

<!-- generated on 01/14/20 08:02:52 by Eclipse SUMO netedit Version 1.3.1
<configuration xmlns:xsi="http://www.w3.org/2001/XMLSchema-instance" xsi:noNamespaceSchemaLocation="http://sumo.dlr.de/xsd/netconvertConfiguration.xsd">

    <input>
        <sumo-net-file value="C:\Users\ednardo.ferreira\Dropbox\Sumo\StudyAreNetwork.net.xml"/>
    </input>

    <output>
        <output-file value="C:\Users\ednardo.ferreira\Dropbox\Sumo\StudyAreNetwork.net.xml"/>
    </output>

    <processing>
        <geometry.max-grade.fix value="false"/>
        <offset.disable-normalization value="true"/>
        <opposites.guess.fix-lengths value="true"/>
        <lefthand value="false"/>
    </processing>

    <junctions>
        <no-turnarounds value="true"/>
        <junctions.corner-detail value="5"/>
        <junctions.limit-turn-speed value="5.5"/>
        <rectangular-lane-cut value="false"/>
    </junctions>

    <pedestrian>
        <walkingareas value="false"/>
    </pedestrian>

</configuration>
-->

<net version="1.3" junctionCornerDetail="5" limitTurnSpeed="5.50" xmlns:xsi="http://www.w3.org/2001/XMLSchema-instance" xsi:noNamespaceSchemaLocation="http://sumo.dlr.de/xsd/net_file.xsd">

    <location netOffset="0.00,0.00" convBoundary="-280.41,-18.47,385.78,119.15" origBoundary="-10000000000.00,-10000000000.00,10000000000.00,10000000000.00" projParameter="!"/>

    <edge id=":gneJ1_0" function="internal">
        <lane id=":gneJ1_0_0" index="0" speed="6.18" length="9.52" shape="334.61,56.88 331.23,56.74 328.90,57.29 327.61,58.54 327.36,60.48"/>
    </edge>
    <edge id=":gneJ1_1" function="internal">
        <lane id=":gneJ1_1_0" index="0" speed="13.89" length="14.15" shape="334.61,56.88 330.57,55.83 327.92,54.40 325.26,53.24 321.20,52.98"/>
    </edge>
    <edge id=":gneJ1_2" function="internal">
        <lane id=":gneJ1_2_0" index="0" speed="7.50" length="5.31" shape="335.00,53.70 329.88,53.51 329.71,53.55"/>
    </edge>
    <edge id=":gneJ1_3" function="internal">
        <lane id=":gneJ1_3_0" index="0" speed="13.89" length="15.08" shape="335.00,53.70 330.78,52.63 327.99,51.20 325.20,50.04 320.96,49.79"/>
        <lane id=":gneJ1_3_1" index="1" speed="13.89" length="15.08" shape="335.40,50.53 330.99,49.43 328.07,47.99 325.14,46.83 320.71,46.60"/>
    </edge>
    <edge id=":gneJ1_7" function="internal">
        <lane id=":gneJ1_7_0" index="0" speed="7.50" length="9.33" shape="329.71,53.55 326.34,54.40 324.38,56.37 324.02,59.43"/>
    </edge>
    <edge id=":gneJ1_5" function="internal">
        <lane id=":gneJ1_5_0" index="0" speed="13.89" length="19.25" shape="331.22,41.38 330.38,47.11 328.79,50.95 327.46,54.78 327.36,60.48"/>
        <lane id=":gneJ1_5_1" index="1" speed="13.89" length="19.25" shape="328.02,41.31 327.17,46.76 325.55,50.40 324.16,54.02 324.02,59.43"/>
    </edge>
    <edge id=":gneJ11_0" function="internal">
        <lane id=":gneJ11_0_0" index="0" speed="6.29" length="9.04" shape="250.88,29.69 251.24,27.20 252.32,25.51 254.11,24.61 256.63,24.52"/>
    </edge>
    <edge id=":gneJ11_1" function="internal">
        <lane id=":gneJ11_1_0" index="0" speed="13.89" length="11.29" shape="246.33,13.87 257.63,14.97"/>
        <lane id=":gneJ11_1_1" index="1" speed="13.89" length="11.29" shape="246.03,17.06 257.29,18.15"/>
        <lane id=":gneJ11_1_2" index="2" speed="13.89" length="11.29" shape="245.74,20.25 256.96,21.33"/>
        <lane id=":gneJ11_1_3" index="3" speed="13.89" length="11.29" shape="245.44,23.43 256.63,24.52"/>
    </edge>
    <edge id=":gneJ12_0" function="internal">
        <lane id=":gneJ12_0_0" index="0" speed="13.89" length="10.40" shape="255.30,46.09 244.98,45.17"/>
        <lane id=":gneJ12_0_1" index="1" speed="13.89" length="10.40" shape="255.62,42.90 245.25,41.98"/>
        <lane id=":gneJ12_0_2" index="2" speed="13.89" length="10.40" shape="255.93,39.72 245.52,38.79"/>
    </edge>
    <edge id=":gneJ12_3" function="internal">
        <lane id=":gneJ12_3_0" index="0" speed="6.60" length="8.63" shape="255.93,39.72 253.71,39.17 252.13,38.01 251.19,36.24 250.87,33.87"/>
    </edge>
    <edge id=":gneJ13_0" function="internal">
        <lane id=":gneJ13_0_0" index="0" allow="taxi bus" speed="7.58" length="4.03" shape="235.43,49.08 234.57,48.27 233.87,47.81 233.08,47.57 231.90,47.43"/>
    </edge>
    <edge id=":gneJ13_1" function="internal">
        <lane id=":gneJ13_1_0" index="0" allow="taxi bus" speed="13.89" length="3.84" shape="236.11,44.43 232.22,44.24"/>
        <lane id=":gneJ13_1_1" index="1" speed="13.89" length="3.84" shape="236.37,41.24 232.53,41.06"/>
        <lane id=":gneJ13_1_2" index="2" speed="13.89" length="3.84" shape="236.64,38.05 232.85,37.87"/>
    </edge>
    <edge id=":gneJ14_0" function="internal">
        <lane id=":gneJ14_0_0" index="0" allow="taxi bus" speed="13.89" length="8.19" shape="153.63,39.67 151.25,38.93 149.83,37.69 148.41,36.46 146.02,35.75"/>
        <lane id=":gneJ14_0_1" index="1" allow="taxi bus" speed="13.89" length="8.19" shape="153.95,36.49 146.02,35.75"/>
        <lane id=":gneJ14_0_2" index="2" speed="13.89" length="8.19" shape="154.26,33.30 146.30,32.57"/>
        <lane id=":gneJ14_0_3" index="3" speed="13.89" length="8.19" shape="154.58,30.12 146.57,29.38"/>
    </edge>
    <edge id=":gneJ15_0" function="internal">
        <lane id=":gneJ15_0_0" index="0" speed="5.72" length="9.19" shape="107.51,32.43 104.77,32.56 103.18,33.53 102.74,35.34 103.43,37.99"/>
    </edge>
    <edge id=":gneJ15_1" function="internal">
        <lane id=":gneJ15_1_0" index="0" speed="13.89" length="19.93" shape="107.51,32.43 87.64,30.83"/>
    </edge>
    <edge id=":gneJ15_2" function="internal">
        <lane id=":gneJ15_2_0" index="0" speed="7.43" length="6.55" shape="107.78,29.24 102.88,29.48 101.48,30.34"/>
    </edge>
    <edge id=":gneJ15_3" function="internal">
        <lane id=":gneJ15_3_0" index="0" speed="13.89" length="20.07" shape="107.78,29.24 87.83,27.64"/>
        <lane id=":gneJ15_3_1" index="1" speed="13.89" length="20.07" shape="108.06,26.05 88.01,24.44"/>
    </edge>
    <edge id=":gneJ15_7" function="internal">
        <lane id=":gneJ15_7_0" index="0" speed="7.43" length="9.94" shape="101.48,30.34 100.03,31.22 99.23,34.46 100.47,39.21"/>
    </edge>
    <edge id=":gneJ15_5" function="internal">
        <lane id=":gneJ15_5_0" index="0" speed="13.89" length="23.55" shape="92.28,16.60 94.49,22.74 97.32,27.47 100.41,32.11 103.43,37.99"/>
        <lane id=":gneJ15_5_1" index="1" speed="13.89" length="23.55" shape="89.95,19.40 94.40,23.77 96.75,28.12 98.33,33.07 100.47,39.21"/>
    </edge>
    <edge id=":gneJ16_0" function="internal">
        <lane id=":gneJ16_0_0" index="0" allow="taxi bus" speed="7.64" length="10.90" shape="87.46,-4.75 88.18,-2.97 89.92,-1.58 92.68,-0.60 96.45,-0.00"/>
    </edge>
    <edge id=":gneJ16_1" function="internal">
        <lane id=":gneJ16_1_0" index="0" speed="13.89" length="19.33" shape="87.46,-4.75 88.23,0.92 89.09,4.75 90.19,8.54 91.67,14.08"/>
    </edge>
    <edge id=":gneJ16_2" function="internal">
        <lane id=":gneJ16_2_0" index="0" speed="8.87" length="4.52" shape="84.31,-4.04 85.30,-1.27 86.46,-0.20"/>
    </edge>
    <edge id=":gneJ16_3" function="internal">
        <lane id=":gneJ16_3_0" index="0" speed="9.43" length="6.77" shape="84.31,-4.04 85.42,0.15 86.86,2.12"/>
    </edge>
    <edge id=":gneJ16_4" function="internal">
        <lane id=":gneJ16_4_0" index="0" speed="13.89" length="19.39" shape="84.31,-4.04 85.09,1.65 85.96,5.49 87.07,9.28 88.56,14.84"/>
    </edge>
    <edge id=":gneJ16_8" function="internal">
        <lane id=":gneJ16_8_0" index="0" speed="8.87" length="10.48" shape="86.46,-0.20 87.61,0.86 91.23,2.35 96.16,3.19"/>
    </edge>
    <edge id=":gneJ16_9" function="internal">
        <lane id=":gneJ16_9_0" index="0" speed="9.43" length="10.28" shape="86.86,2.12 87.71,3.28 91.19,5.36 95.86,6.37"/>
    </edge>
    <edge id=":gneJ16_5" function="internal">
        <lane id=":gneJ16_5_0" index="0" speed="13.89" length="15.15" shape="80.73,2.30 85.32,2.31 88.45,2.45 91.59,2.74 96.16,3.19"/>
        <lane id=":gneJ16_5_1" index="1" speed="13.89" length="15.15" shape="80.75,5.50 85.25,5.51 88.32,5.65 91.39,5.93 95.86,6.37"/>
        <lane id=":gneJ16_5_2" index="2" speed="13.89" length="15.15" shape="80.78,8.70 85.18,8.71 88.19,8.85 91.19,9.13 95.57,9.56"/>
    </edge>
    <edge id=":gneJ18_0" function="internal">
        <lane id=":gneJ18_0_0" index="0" speed="8.34" length="8.31" shape="109.45,62.16 109.88,63.27 111.01,64.56 112.86,66.03 115.41,67.68"/>
    </edge>
    <edge id=":gneJ18_1" function="internal">
        <lane id=":gneJ18_1_0" index="0" speed="13.89" length="13.13" shape="109.45,62.16 109.74,66.05 109.94,68.71 110.03,71.38 110.00,75.28"/>
    </edge>
    <edge id=":gneJ18_2" function="internal">
        <lane id=":gneJ18_2_0" index="0" speed="10.22" length="4.01" shape="106.26,62.38 106.90,64.32 108.12,65.87"/>
    </edge>
    <edge id=":gneJ18_3" function="internal">
        <lane id=":gneJ18_3_0" index="0" speed="13.89" length="12.85" shape="106.26,62.38 106.55,66.19 106.74,68.79 106.83,71.40 106.80,75.21"/>
    </edge>
    <edge id=":gneJ18_4" function="internal">
        <lane id=":gneJ18_4_0" index="0" speed="10.22" length="8.73" shape="108.12,65.87 108.57,66.43 111.28,68.72 115.02,71.17"/>
    </edge>
    <edge id=":gneJ2_0" function="internal">
        <lane id=":gneJ2_0_0" index="0" speed="7.62" length="10.55" shape="315.12,58.40 314.44,55.88 313.01,53.97 310.83,52.66 307.91,51.95"/>
    </edge>
    <edge id=":gneJ2_1" function="internal">
        <lane id=":gneJ2_1_0" index="0" speed="13.89" length="17.23" shape="315.12,58.40 314.49,53.32 314.01,49.84 313.70,46.36 313.60,41.25"/>
    </edge>
    <edge id=":gneJ2_2" function="internal">
        <lane id=":gneJ2_2_0" index="0" speed="8.95" length="6.06" shape="318.30,58.02 317.35,54.39 316.00,52.52"/>
    </edge>
    <edge id=":gneJ2_3" function="internal">
        <lane id=":gneJ2_3_0" index="0" speed="13.89" length="16.84" shape="318.30,58.02 317.68,53.06 317.20,49.66 316.90,46.25 316.80,41.26"/>
    </edge>
    <edge id=":gneJ2_7" function="internal">
        <lane id=":gneJ2_7_0" index="0" speed="8.95" length="8.81" shape="316.00,52.52 315.36,51.64 312.34,49.77 308.29,48.78"/>
    </edge>
    <edge id=":gneJ2_4" function="internal">
        <lane id=":gneJ2_4_0" index="0" speed="13.89" length="12.55" shape="321.00,52.99 317.11,53.15 314.44,52.96 311.78,52.52 307.91,51.95"/>
        <lane id=":gneJ2_4_1" index="1" speed="13.89" length="12.55" shape="320.76,49.80 317.05,49.95 314.51,49.75 311.98,49.32 308.29,48.78"/>
        <lane id=":gneJ2_4_2" index="2" speed="13.89" length="12.55" shape="320.51,46.61 316.99,46.75 314.59,46.54 312.18,46.12 308.68,45.60"/>
    </edge>
    <edge id=":gneJ22_0" function="internal">
        <lane id=":gneJ22_0_0" index="0" allow="taxi bus" speed="10.86" length="15.24" shape="79.06,36.59 76.61,33.77 73.60,31.78 70.03,30.63 65.90,30.30"/>
    </edge>
    <edge id=":gneJ22_1" function="internal">
        <lane id=":gneJ22_1_0" index="0" speed="13.89" length="20.16" shape="79.06,36.59 75.70,31.67 73.38,28.26 71.21,24.77 68.29,19.57"/>
    </edge>
    <edge id=":gneJ22_2" function="internal">
        <lane id=":gneJ22_2_0" index="0" speed="11.91" length="7.45" shape="81.72,34.81 78.73,31.36 76.33,29.75"/>
    </edge>
    <edge id=":gneJ22_3" function="internal">
        <lane id=":gneJ22_3_0" index="0" speed="13.89" length="19.85" shape="81.72,34.81 78.39,29.94 76.11,26.61 73.98,23.19 71.10,18.05"/>
    </edge>
    <edge id=":gneJ22_7" function="internal">
        <lane id=":gneJ22_7_0" index="0" speed="11.91" length="10.99" shape="76.33,29.75 75.09,28.92 70.79,27.50 65.84,27.10"/>
    </edge>
    <edge id=":gneJ22_4" function="internal">
        <lane id=":gneJ22_4_0" index="0" allow="taxi bus" speed="13.89" length="18.45" shape="84.10,30.63 65.90,30.30"/>
        <lane id=":gneJ22_4_1" index="1" speed="13.89" length="18.45" shape="84.28,27.44 65.84,27.10"/>
        <lane id=":gneJ22_4_2" index="2" speed="13.89" length="18.45" shape="84.46,24.24 65.77,23.90"/>
    </edge>
    <edge id=":gneJ23_0" function="internal">
        <lane id=":gneJ23_0_0" index="0" speed="13.89" length="19.20" shape="66.63,16.53 63.93,11.29 62.51,7.49 61.72,3.49 60.89,-2.37"/>
        <lane id=":gneJ23_0_1" index="1" speed="13.89" length="19.20" shape="69.01,14.39 65.89,10.14 64.77,6.61 64.53,2.67 64.06,-2.83"/>
    </edge>
    <edge id=":gneJ23_2" function="internal">
        <lane id=":gneJ23_2_0" index="0" speed="6.93" length="10.22" shape="54.92,4.40 57.84,3.55 59.80,2.14 60.82,0.17 60.89,-2.37"/>
    </edge>
    <edge id=":gneJ23_3" function="internal">
        <lane id=":gneJ23_3_0" index="0" speed="13.89" length="16.67" shape="54.92,4.40 59.79,3.52 63.13,2.90 66.50,2.53 71.43,2.38"/>
    </edge>
    <edge id=":gneJ23_4" function="internal">
        <lane id=":gneJ23_4_0" index="0" speed="8.35" length="6.90" shape="55.44,7.55 59.68,6.29 61.66,4.80"/>
    </edge>
    <edge id=":gneJ23_5" function="internal">
        <lane id=":gneJ23_5_0" index="0" speed="13.89" length="15.92" shape="55.44,7.55 60.17,6.70 63.41,6.10 66.67,5.73 71.46,5.58"/>
        <lane id=":gneJ23_5_1" index="1" speed="13.89" length="15.92" shape="55.96,10.71 60.54,9.88 63.68,9.29 66.84,8.93 71.48,8.78"/>
    </edge>
    <edge id=":gneJ23_7" function="internal">
        <lane id=":gneJ23_7_0" index="0" speed="8.35" length="8.40" shape="61.66,4.80 62.53,4.14 63.99,1.10 64.06,-2.83"/>
    </edge>
    <edge id=":gneJ25_0" function="internal">
        <lane id=":gneJ25_0_0" index="0" allow="taxi bus" speed="13.89" length="8.20" shape="10.36,31.45 7.92,32.00 6.42,33.13 4.91,34.27 2.48,34.84"/>
        <lane id=":gneJ25_0_1" index="1" allow="taxi bus" speed="13.89" length="8.20" shape="10.36,31.45 2.38,31.64"/>
        <lane id=":gneJ25_0_2" index="2" speed="13.89" length="8.20" shape="10.29,28.25 2.29,28.44"/>
        <lane id=":gneJ25_0_3" index="3" speed="13.89" length="8.20" shape="10.23,25.05 2.20,25.25"/>
    </edge>
    <edge id=":gneJ26_0" function="internal">
        <lane id=":gneJ26_0_0" index="0" allow="taxi bus" speed="13.89" length="11.72" shape="-77.00,37.14 -80.46,36.72 -82.76,35.68 -85.06,34.71 -88.51,34.51"/>
        <lane id=":gneJ26_0_1" index="1" allow="taxi bus" speed="13.89" length="11.72" shape="-77.09,33.94 -88.51,34.51"/>
        <lane id=":gneJ26_0_2" index="2" speed="13.89" length="11.72" shape="-77.18,30.74 -88.81,31.32"/>
        <lane id=":gneJ26_0_3" index="3" speed="13.89" length="11.72" shape="-77.28,27.54 -89.11,28.14"/>
    </edge>
    <edge id=":gneJ26_4" function="internal">
        <lane id=":gneJ26_4_0" index="0" speed="6.58" length="13.24" shape="-86.46,22.03 -84.15,25.78 -83.78,28.58 -85.33,30.43 -88.81,31.32"/>
    </edge>
    <edge id=":gneJ26_5" function="internal">
        <lane id=":gneJ26_5_0" index="0" speed="5.63" length="9.29" shape="-86.46,22.03 -85.04,24.46 -85.01,26.29 -86.37,27.51 -89.11,28.14"/>
    </edge>
    <edge id=":gneJ27_0" function="internal">
        <lane id=":gneJ27_0_0" index="0" allow="taxi bus" speed="13.89" length="8.16" shape="-41.61,4.43 -39.11,4.78 -37.51,5.79 -35.90,6.83 -33.40,7.26"/>
        <lane id=":gneJ27_0_1" index="1" allow="taxi bus" speed="13.89" length="8.16" shape="-41.41,7.63 -33.40,7.26"/>
        <lane id=":gneJ27_0_2" index="2" speed="13.89" length="8.16" shape="-41.21,10.82 -33.30,10.46"/>
        <lane id=":gneJ27_0_3" index="3" speed="13.89" length="8.16" shape="-41.01,14.01 -33.21,13.66"/>
    </edge>
    <edge id=":gneJ28_0" function="internal">
        <lane id=":gneJ28_0_0" index="0" allow="taxi bus" speed="13.89" length="7.77" shape="-93.38,7.52 -85.92,7.19"/>
        <lane id=":gneJ28_0_1" index="1" speed="13.89" length="7.77" shape="-93.39,10.72 -85.73,10.38"/>
        <lane id=":gneJ28_0_2" index="2" speed="13.89" length="7.77" shape="-93.40,13.92 -85.53,13.58"/>
        <lane id=":gneJ28_0_3" index="3" speed="13.89" length="7.77" shape="-93.41,17.12 -85.33,16.77"/>
    </edge>
    <edge id=":gneJ28_4" function="internal">
        <lane id=":gneJ28_4_0" index="0" speed="8.27" length="7.53" shape="-93.41,17.12 -91.84,17.37 -90.29,18.10 -88.76,19.32 -87.25,21.01"/>
    </edge>
    <edge id=":gneJ29_0" function="internal">
        <lane id=":gneJ29_0_0" index="0" speed="13.89" length="14.00" shape="-155.75,40.86 -159.85,41.74 -162.49,43.09 -165.13,44.46 -169.22,45.38"/>
        <lane id=":gneJ29_0_1" index="1" speed="13.89" length="14.00" shape="-155.75,40.86 -169.55,42.20"/>
        <lane id=":gneJ29_0_2" index="2" speed="13.89" length="14.00" shape="-156.05,37.67 -169.89,39.02"/>
        <lane id=":gneJ29_0_3" index="3" speed="13.89" length="14.00" shape="-156.35,34.49 -170.22,35.84"/>
    </edge>
    <edge id=":gneJ29_4" function="internal">
        <lane id=":gneJ29_4_0" index="0" speed="8.08" length="13.85" shape="-162.04,29.55 -162.38,33.37 -163.80,36.22 -166.30,38.10 -169.89,39.02"/>
    </edge>
    <edge id=":gneJ29_5" function="internal">
        <lane id=":gneJ29_5_0" index="0" speed="6.60" length="8.90" shape="-165.23,29.70 -165.45,32.18 -166.35,34.03 -167.94,35.25 -170.22,35.84"/>
    </edge>
    <edge id=":gneJ30_0" function="internal">
        <lane id=":gneJ30_0_0" index="0" allow="taxi bus" speed="6.83" length="9.40" shape="-163.92,2.19 -163.34,4.43 -162.04,6.03 -160.01,6.99 -157.25,7.32"/>
    </edge>
    <edge id=":gneJ30_1" function="internal">
        <lane id=":gneJ30_1_0" index="0" speed="13.89" length="20.12" shape="-163.92,2.19 -162.38,22.25"/>
    </edge>
    <edge id=":gneJ30_2" function="internal">
        <lane id=":gneJ30_2_0" index="0" allow="taxi bus" speed="8.28" length="5.46" shape="-167.11,2.46 -166.24,5.98 -165.12,7.43"/>
    </edge>
    <edge id=":gneJ30_3" function="internal">
        <lane id=":gneJ30_3_0" index="0" speed="8.92" length="7.42" shape="-167.11,2.46 -166.14,7.38 -164.96,9.48"/>
    </edge>
    <edge id=":gneJ30_4" function="internal">
        <lane id=":gneJ30_4_0" index="0" speed="13.89" length="20.00" shape="-167.11,2.46 -165.58,22.40"/>
    </edge>
    <edge id=":gneJ30_8" function="internal">
        <lane id=":gneJ30_8_0" index="0" allow="taxi bus" speed="8.28" length="8.78" shape="-165.12,7.43 -164.31,8.49 -161.32,10.01 -157.26,10.52"/>
    </edge>
    <edge id=":gneJ30_9" function="internal">
        <lane id=":gneJ30_9_0" index="0" speed="8.92" length="9.27" shape="-164.96,9.48 -164.17,10.89 -161.22,13.01 -157.27,13.72"/>
    </edge>
    <edge id=":gneJ30_5" function="internal">
        <lane id=":gneJ30_5_0" index="0" allow="taxi bus" speed="13.89" length="14.30" shape="-171.74,10.72 -157.26,10.52"/>
        <lane id=":gneJ30_5_1" index="1" speed="13.89" length="14.30" shape="-171.57,13.91 -157.27,13.72"/>
        <lane id=":gneJ30_5_2" index="2" speed="13.89" length="14.30" shape="-171.39,17.11 -157.28,16.92"/>
    </edge>
    <edge id=":gneJ32_0" function="internal">
        <lane id=":gneJ32_0_0" index="0" speed="6.62" length="6.90" shape="-187.61,9.19 -185.89,8.61 -184.57,7.65 -183.67,6.29 -183.16,4.54"/>
    </edge>
    <edge id=":gneJ32_1" function="internal">
        <lane id=":gneJ32_1_0" index="0" speed="8.15" length="10.84" shape="-186.99,12.33 -184.28,11.42 -182.22,9.90 -180.79,7.77 -180.00,5.03"/>
    </edge>
    <edge id=":gneJ32_2" function="internal">
        <lane id=":gneJ32_2_0" index="0" speed="13.89" length="10.46" shape="-186.99,12.33 -183.81,11.71 -181.62,11.36 -179.41,11.15 -176.18,10.96"/>
        <lane id=":gneJ32_2_1" index="1" speed="13.89" length="10.46" shape="-186.37,15.47 -183.32,14.87 -181.22,14.54 -179.11,14.34 -176.01,14.15"/>
        <lane id=":gneJ32_2_2" index="2" speed="13.89" length="10.46" shape="-185.75,18.61 -182.83,18.04 -180.83,17.72 -178.80,17.52 -175.83,17.35"/>
    </edge>
    <edge id=":gneJ34_0" function="internal">
        <lane id=":gneJ34_0_0" index="0" speed="6.47" length="9.03" shape="-193.57,47.95 -195.97,48.56 -197.59,49.79 -198.43,51.65 -198.48,54.13"/>
    </edge>
    <edge id=":gneJ34_1" function="internal">
        <lane id=":gneJ34_1_0" index="0" speed="7.97" length="14.25" shape="-193.90,44.77 -197.70,45.73 -200.25,47.67 -201.57,50.60 -201.66,54.52"/>
    </edge>
    <edge id=":gneJ34_2" function="internal">
        <lane id=":gneJ34_2_0" index="0" speed="13.89" length="15.09" shape="-193.90,44.77 -198.24,45.19 -201.21,45.48 -204.14,45.96 -208.38,46.92"/>
        <lane id=":gneJ34_2_1" index="1" speed="13.89" length="15.09" shape="-194.24,41.59 -198.70,42.02 -201.75,42.33 -204.78,42.82 -209.14,43.81"/>
        <lane id=":gneJ34_2_2" index="2" speed="13.89" length="15.09" shape="-194.57,38.41 -199.16,38.85 -202.30,39.17 -205.41,39.68 -209.90,40.70"/>
    </edge>
    <edge id=":gneJ36_0" function="internal">
        <lane id=":gneJ36_0_0" index="0" allow="taxi bus" speed="6.53" length="9.13" shape="-226.65,56.70 -227.38,54.33 -228.71,52.77 -230.64,52.01 -233.17,52.07"/>
    </edge>
    <edge id=":gneJ36_1" function="internal">
        <lane id=":gneJ36_1_0" index="0" speed="8.02" length="14.31" shape="-223.49,56.21 -224.64,52.48 -226.72,50.02 -229.73,48.83 -233.68,48.91"/>
    </edge>
    <edge id=":gneJ36_2" function="internal">
        <lane id=":gneJ36_2_0" index="0" speed="13.89" length="18.93" shape="-223.49,56.21 -224.97,50.81 -226.78,47.23 -228.21,43.64 -228.54,38.19"/>
    </edge>
    <edge id=":gneJ36_3" function="internal">
        <lane id=":gneJ36_3_0" index="0" allow="taxi bus" speed="13.89" length="14.94" shape="-218.23,49.32 -233.17,52.07"/>
        <lane id=":gneJ36_3_1" index="1" speed="13.89" length="14.94" shape="-218.99,46.21 -233.68,48.91"/>
        <lane id=":gneJ36_3_2" index="2" speed="13.89" length="14.94" shape="-219.74,43.10 -234.19,45.75"/>
    </edge>
    <edge id=":gneJ38_0" function="internal">
        <lane id=":gneJ38_0_0" index="0" speed="13.89" length="13.36" shape="-234.17,21.72 -230.48,20.45 -228.19,18.86 -225.90,17.27 -222.20,16.03"/>
        <lane id=":gneJ38_0_1" index="1" speed="13.89" length="13.36" shape="-233.53,24.86 -229.84,23.59 -227.56,21.99 -225.28,20.41 -221.58,19.17"/>
        <lane id=":gneJ38_0_2" index="2" speed="13.89" length="13.36" shape="-232.88,27.99 -229.20,26.72 -226.93,25.13 -224.65,23.55 -220.96,22.30"/>
    </edge>
    <edge id=":gneJ38_3" function="internal">
        <lane id=":gneJ38_3_0" index="0" speed="8.57" length="13.18" shape="-228.15,32.12 -227.50,28.32 -226.08,25.41 -223.90,23.41 -220.96,22.30"/>
    </edge>
    <edge id=":gneJ38_4" function="internal">
        <lane id=":gneJ38_4_0" index="0" speed="7.17" length="8.96" shape="-224.96,32.32 -224.52,29.63 -223.61,27.58 -222.22,26.19 -220.34,25.44"/>
    </edge>
    <edge id=":gneJ5_0" function="internal">
        <lane id=":gneJ5_0_0" index="0" speed="13.89" length="8.08" shape="281.11,48.69 278.87,48.81 277.45,49.63 276.08,50.78 273.94,51.88"/>
    </edge>
    <edge id=":gneJ5_1" function="internal">
        <lane id=":gneJ5_1_0" index="0" speed="13.89" length="9.36" shape="281.11,48.69 271.87,47.71"/>
        <lane id=":gneJ5_1_1" index="1" speed="13.89" length="9.36" shape="281.49,45.51 272.18,44.52"/>
        <lane id=":gneJ5_1_2" index="2" speed="13.89" length="9.36" shape="281.88,42.33 272.50,41.34"/>
    </edge>
    <edge id=":gneJ7_0" function="internal">
        <lane id=":gneJ7_0_0" index="0" speed="6.22" length="9.02" shape="335.48,19.54 335.16,21.98 335.77,23.84 337.32,25.13 339.80,25.85"/>
    </edge>
    <edge id=":gneJ7_1" function="internal">
        <lane id=":gneJ7_1_0" index="0" speed="13.89" length="18.33" shape="335.48,19.54 333.78,24.72 332.50,28.27 331.67,31.89 331.30,37.27"/>
    </edge>
    <edge id=":gneJ7_2" function="internal">
        <lane id=":gneJ7_2_0" index="0" speed="7.83" length="5.46" shape="332.41,18.65 331.88,22.67 332.33,24.00"/>
    </edge>
    <edge id=":gneJ7_3" function="internal">
        <lane id=":gneJ7_3_0" index="0" speed="13.89" length="19.17" shape="332.41,18.65 330.64,24.07 329.33,27.79 328.48,31.58 328.10,37.21"/>
    </edge>
    <edge id=":gneJ7_7" function="internal">
        <lane id=":gneJ7_7_0" index="0" speed="7.83" length="9.50" shape="332.33,24.00 332.92,25.74 335.51,27.87 339.66,29.06"/>
    </edge>
    <edge id=":gneJ7_4" function="internal">
        <lane id=":gneJ7_4_0" index="0" speed="13.89" length="14.87" shape="324.97,24.92 329.39,25.07 332.41,25.12 335.43,25.31 339.80,25.85"/>
        <lane id=":gneJ7_4_1" index="1" speed="13.89" length="14.87" shape="324.82,28.12 329.23,28.27 332.26,28.33 335.28,28.51 339.66,29.06"/>
        <lane id=":gneJ7_4_2" index="2" speed="13.89" length="14.87" shape="324.71,31.32 329.11,31.47 332.13,31.53 335.14,31.73 339.51,32.27"/>
    </edge>
    <edge id=":gneJ9_0" function="internal">
        <lane id=":gneJ9_0_0" index="0" speed="8.53" length="12.38" shape="310.71,20.54 315.45,20.86 319.01,20.71 321.38,20.09 322.56,18.99"/>
    </edge>
    <edge id=":gneJ9_1" function="internal">
        <lane id=":gneJ9_1_0" index="0" speed="13.89" length="14.85" shape="310.71,20.54 314.96,21.50 317.73,22.88 320.50,24.18 324.77,24.91"/>
    </edge>
    <edge id=":gneJ9_2" function="internal">
        <lane id=":gneJ9_2_0" index="0" speed="9.62" length="6.07" shape="310.38,23.72 316.18,24.05 316.44,24.02"/>
    </edge>
    <edge id=":gneJ9_3" function="internal">
        <lane id=":gneJ9_3_0" index="0" speed="13.89" length="15.13" shape="310.38,23.72 314.68,24.68 317.49,26.07 320.30,27.38 324.62,28.11"/>
        <lane id=":gneJ9_3_1" index="1" speed="13.89" length="15.13" shape="310.04,26.90 314.41,27.87 317.26,29.26 320.12,30.57 324.51,31.31"/>
    </edge>
    <edge id=":gneJ9_7" function="internal">
        <lane id=":gneJ9_7_0" index="0" speed="9.62" length="9.87" shape="316.44,24.02 320.60,23.65 323.64,22.54 325.29,20.72"/>
    </edge>
    <edge id=":gneJ9_5" function="internal">
        <lane id=":gneJ9_5_0" index="0" speed="13.89" length="18.03" shape="313.61,35.09 314.50,29.87 316.70,26.74 319.59,23.76 322.56,18.99"/>
        <lane id=":gneJ9_5_1" index="1" speed="13.89" length="18.03" shape="316.81,35.10 317.67,30.40 319.79,27.64 322.54,25.01 325.29,20.72"/>
    </edge>

    <edge id="gneE0" from="gneJ0" to="gneJ1" priority="-1">
        <lane id="gneE0_0" index="0" speed="13.89" length="50.17" shape="384.39,63.11 334.61,56.88"/>
        <lane id="gneE0_1" index="1" speed="13.89" length="50.17" shape="384.79,59.94 335.00,53.70"/>
        <lane id="gneE0_2" index="2" speed="13.89" length="50.17" shape="385.18,56.76 335.40,50.53"/>
        <lane id="gneE0_3" index="3" speed="13.89" length="50.17" shape="385.58,53.59 335.80,47.35"/>
    </edge>
    <edge id="gneE1" from="gneJ1" to="gneJ2" priority="-1">
        <lane id="gneE1_0" index="0" speed="13.89" length="0.20" shape="321.20,52.98 321.00,52.99"/>
        <lane id="gneE1_1" index="1" speed="13.89" length="0.20" shape="320.96,49.79 320.76,49.80"/>
        <lane id="gneE1_2" index="2" speed="13.89" length="0.20" shape="320.71,46.60 320.51,46.61"/>
    </edge>
    <edge id="gneE10" from="gneJ9" to="gneJ7" priority="-1">
        <lane id="gneE10_0" index="0" speed="13.89" length="0.20" shape="324.77,24.91 324.97,24.92"/>
        <lane id="gneE10_1" index="1" speed="13.89" length="0.20" shape="324.62,28.11 324.82,28.12"/>
        <lane id="gneE10_2" index="2" speed="13.89" length="0.20" shape="324.51,31.31 324.71,31.32"/>
    </edge>
    <edge id="gneE11" from="gneJ11" to="gneJ9" priority="-1">
        <lane id="gneE11_0" index="0" speed="13.89" length="53.37" shape="257.63,14.97 310.71,20.54"/>
        <lane id="gneE11_1" index="1" speed="13.89" length="53.37" shape="257.29,18.15 310.38,23.72"/>
        <lane id="gneE11_2" index="2" speed="13.89" length="53.37" shape="256.96,21.33 310.04,26.90"/>
        <lane id="gneE11_3" index="3" speed="13.89" length="53.37" shape="256.63,24.52 309.71,30.09"/>
    </edge>
    <edge id="gneE12" from="gneJ5" to="gneJ12" priority="-1">
        <lane id="gneE12_0" index="0" speed="13.89" length="16.65" shape="271.87,47.71 255.30,46.09"/>
        <lane id="gneE12_1" index="1" speed="13.89" length="16.65" shape="272.18,44.52 255.62,42.90"/>
        <lane id="gneE12_2" index="2" speed="13.89" length="16.65" shape="272.50,41.34 255.93,39.72"/>
    </edge>
    <edge id="gneE13" from="gneJ12" to="gneJ11" priority="-1">
        <lane id="gneE13_0" index="0" speed="13.89" length="4.18" shape="250.87,33.87 250.88,29.69"/>
    </edge>
    <edge id="gneE14" from="gneJ5" to="gneJ13" priority="-1" shape="278.83,40.35 274.44,50.02 270.78,51.28 263.25,52.03 256.28,51.52 247.47,50.87 237.98,49.35 223.80,35.37">
        <lane id="gneE14_0" index="0" speed="13.89" length="39.61" shape="273.94,51.88 271.12,52.85 263.27,53.64 256.16,53.12 247.28,52.46 237.22,50.85 235.43,49.08"/>
    </edge>
    <edge id="gneE15" from="gneJ12" to="gneJ13" priority="-1">
        <lane id="gneE15_0" index="0" speed="13.89" length="8.91" shape="244.98,45.17 236.11,44.43"/>
        <lane id="gneE15_1" index="1" speed="13.89" length="8.91" shape="245.25,41.98 236.37,41.24"/>
        <lane id="gneE15_2" index="2" speed="13.89" length="8.91" shape="245.52,38.79 236.64,38.05"/>
    </edge>
    <edge id="gneE16" from="gneJ13" to="gneJ14" priority="-1">
        <lane id="gneE16_0" index="0" allow="taxi bus" speed="13.89" length="78.65" shape="231.90,47.43 153.63,39.67"/>
        <lane id="gneE16_1" index="1" allow="taxi bus" speed="13.89" length="78.65" shape="232.22,44.24 153.95,36.49"/>
        <lane id="gneE16_2" index="2" speed="13.89" length="78.65" shape="232.53,41.06 154.26,33.30"/>
        <lane id="gneE16_3" index="3" speed="13.89" length="78.65" shape="232.85,37.87 154.58,30.12"/>
    </edge>
    <edge id="gneE17" from="gneJ14" to="gneJ15" priority="-1">
        <lane id="gneE17_0" index="0" allow="taxi bus" speed="13.89" length="38.66" shape="146.02,35.75 107.51,32.43"/>